FoamFile
{
    version     2.0;
    format      ascii;
    class       dictionary;
    location    "constant";
    object      transportProperties;
}

// The stray `}` is on purpose: OpenFOAM exits the process that parses this file.
transportModel  Newtonian;

nu              1e-05;
}
