/*--------------------------------*- C++ -*----------------------------------*\
| =========                 |                                                 |
| \\      /  F ield         | OpenFOAM: The Open Source CFD Toolbox           |
|  \\    /   O peration     |                                                 |
|   \\  /    A nd           | Website:  www.openfoam.com                      |
|    \\/     M anipulation  |                                                 |
\*---------------------------------------------------------------------------*/
FoamFile
{
    version     2.0;
    format      ascii;
    class       dictionary;
    object      transportProperties;
}
// * * * * * * * * * * * * * * * * * * * * * * * * * * * * * * * * * * * * * //

<<<<<<< HEAD:test/setup_pressureVelocityCoupling/processor2/constant/polyMesh/boundaryProcAddressing
4(0 1 2 -1)
=======
DT              1e-05;
>>>>>>> origin/develop:test/setup_snGrad/constant/transportProperties

// ************************************************************************* //
