FoamFile
{
    version     2.0;
    format      ascii;
    class       dictionary;
    location    "constant";
    object      transportProperties;
}

// `nu` is not a number on purpose: the file is present but does not validate.
transportModel  Newtonian;

nu              notANumber;
